/*--------------------------------*- C++ -*----------------------------------*\
| =========                 |                                                 |
| \\      /  F ield         | OpenFOAM: The Open Source CFD Toolbox           |
|  \\    /   O peration     | Version:  3.0.0                                 |
|   \\  /    A nd           | Web:      www.OpenFOAM.org                      |
|    \\/     M anipulation  |                                                 |
\*---------------------------------------------------------------------------*/
FoamFile
{
    version     2.0;
    format      ascii;
    class       volScalarField;
    location    "0";
    object      p_rgh;
}
// * * * * * * * * * * * * * * * * * * * * * * * * * * * * * * * * * * * * * //

dimensions      [1 -1 -2 0 0];

internalField   uniform 100952;

boundaryField
{
    inlet
    {
        type            fixedValue;
        value           154820;	//experimental value
    }

    outlet
    {
        type            fixedValue;
        value           100952;	//experimental value
    }

    walls
    {
        type            fixedFluxPressure;
    }
    side
    {
        type            fixedFluxPressure;
    }
    symmetry
    {
        type            fixedFluxPressure;
    }
}

// ************************************************************************* //
