/*--------------------------------*- C++ -*----------------------------------*\
| =========                 |                                                 |
| \\      /  F ield         | OpenFOAM: The Open Source CFD Toolbox           |
|  \\    /   O peration     | Version:  3.0.0                                 |
|   \\  /    A nd           | Web:      www.OpenFOAM.org                      |
|    \\/     M anipulation  |                                                 |
\*---------------------------------------------------------------------------*/
FoamFile
{
    version     2.0;
    format      ascii;
    class       dictionary;
    object      blockMeshDict;
}
// * * * * * * * * * * * * * * * * * * * * * * * * * * * * * * * * * * * * * //

convertToMeters 1;

vertices
(
    (0 0 0)
    (3 0 0)
    (3 0.5 0)
    (0 0.5 0)
    (0 0 1)
    (3 0 1)
    (3 0.5 1)
    (0 0.5 1)
);

blocks
(
    hex (0 1 2 3 4 5 6 7) (100 100 1) simpleGrading (1 5 1)
);

edges
(
);

boundary
(
    inlet
    {
        type patch;
        faces
        (
            (3 0 4 7)
        );
    }
    outlet
    {
        type patch;
        faces
        (
            (1 2 6 5)
        );
    }
    farfield
    {
        type patch;
        faces
        (
            (2 3 7 6)
        );
    }
    lowerWall
    {
        type wall;
        faces
        (
            (0 1 5 4)
        );
    }
    frontAndBack
    {
        type empty;
        faces
        (
            (3 2 1 0)
            (4 5 6 7)
        );
    }
);

mergePatchPairs
(
);

// ************************************************************************* //
